Circuit: * D:\1.Facultate\ED\Lab2_1.asc

WARNING: Node N002 is floating.
WARNING: Node N001 is floating.

WARNING: Less than two connections to node N002.  This node is used by C3.
WARNING: Less than two connections to node N001.  This node is used by C3.
Direct Newton iteration for .op point succeeded.

Date: Sun Apr 23 21:45:30 2023
Total elapsed time: 0.165 seconds.

tnom = 27
temp = 27
method = modified trap
totiter = 3857
traniter = 3844
tranpoints = 1607
accept = 1441
rejected = 166
matrix size = 17
fillins = 2
solver = Normal
Matrix Compiler1: 1.11 KB object code size  0.6/0.4/[0.3]
Matrix Compiler2: 1.35 KB object code size  0.4/0.6/[0.3]

